6
c-H2C3O
O        0.000000        0.000000        1.510389
C        0.000000        0.000000        0.325589
C        0.000000        0.662452       -0.915590
C        0.000000       -0.662452       -0.915590
H        0.000000        1.541252       -1.524781
H        0.000000       -1.541252       -1.524781
