10
C2H5CHO
C       -1.455337        0.462550        0.000000
C        0.000000        0.902562        0.000000
C        0.993552       -0.226939        0.000000
O        0.717247       -1.376602        0.000000
H       -1.679085       -0.135862        0.873125
H       -1.679085       -0.135862       -0.873125
H       -2.108962        1.325943        0.000000
H        0.227500        1.521780       -0.864941
H        0.227500        1.521780        0.864941
H        2.044866        0.085996        0.000000
