9
C2H5CN
C        0.991986       -1.270147        0.000000
C       -0.422442       -0.688640        0.000000
C       -0.422442        0.780960        0.000000
N       -0.422442        1.908160        0.000000
H        0.939566       -2.350877        0.000000
H        1.540394       -0.953099        0.876815
H        1.540394       -0.953099       -0.876815
H       -0.972934       -1.016542       -0.871874
H       -0.972934       -1.016542        0.871874
