9
C2H5OH
O        1.191149       -0.197191        0.000000
C        0.000000        0.547542        0.000000
C       -1.166799       -0.414870        0.000000
H       -2.104499        0.127584        0.000000
H       -1.134443       -1.048483        0.878081
H       -1.134443       -1.048483       -0.878081
H       -0.045152        1.187362        0.877464
H       -0.045152        1.187362       -0.877464
H        1.935288        0.376158        0.000000
