8
C7H
H        0.000000        0.000000       -4.771591
C        0.000000        0.000000       -3.716491
C        0.000000        0.000000       -2.488991
C        0.000000        0.000000       -1.163591
C        0.000000        0.000000        0.100509
C        0.000000        0.000000        1.395609
C        0.000000        0.000000        2.681209
C        0.000000        0.000000        3.987009
