10
CH2OHCH2OH
C        0.280006        0.700188        0.519960
C       -0.280006       -0.700188        0.519960
O        0.280006       -1.424608       -0.539360
O       -0.280006        1.424608       -0.539360
H        0.040295        1.169931        1.470917
H        1.360269        0.645678        0.428460
H       -0.040295       -1.169931        1.470917
H       -1.360269       -0.645678        0.428460
H       -0.217086       -2.203866       -0.704256
H        0.217086        2.203866       -0.704256
