8
CH3CHNH
C       -1.018912       -0.653108        0.000000
C        0.000000        0.442535        0.000000
N        1.227942        0.214700        0.000000
H        1.763547        1.061537        0.000000
H       -0.396472        1.453792        0.000000
H       -0.534605       -1.618206        0.000000
H       -1.657298       -0.568292        0.873458
H       -1.657298       -0.568292       -0.873458
