6
CH3CN
C        0.000000        0.000000       -1.173845
C        0.000000        0.000000        0.289955
N        0.000000        0.000000        1.416555
H        0.000000        1.017248       -1.537512
H       -0.880963       -0.508624       -1.537512
H        0.880963       -0.508624       -1.537512
