10
CH3COCH3
O        0.000000        0.000000        1.375422
C        0.000000        0.000000        0.188122
C        0.000000        1.285162       -0.606155
C        0.000000       -1.285162       -0.606155
H        0.000000        2.135216        0.064402
H        0.871942        1.324867       -1.246764
H       -0.871942        1.324867       -1.246764
H        0.000000       -2.135216        0.064402
H       -0.871942       -1.324867       -1.246764
H        0.871942       -1.324867       -1.246764
