11
CH3COOCH3
C        1.097373        1.506273        0.000000
C        0.000000        0.477346        0.000000
O        0.461663       -0.759610        0.000000
C       -0.488779       -1.807076        0.000000
O       -1.154325        0.741216        0.000000
H        2.074784        1.051336        0.000000
H        0.980341        2.133072        0.873662
H        0.980341        2.133072       -0.873662
H        0.079086       -2.723028        0.000000
H       -1.112414       -1.753277       -0.879737
H       -1.112414       -1.753277        0.879737
