8
CH3COOH
C        1.021703       -0.942880        0.000000
C        0.000000        0.155083        0.000000
O        0.234190        1.313753        0.000000
O       -1.241777       -0.318166        0.000000
H       -1.843886        0.410959        0.000000
H        2.011313       -0.517148        0.000000
H        0.881527       -1.565859        0.873854
H        0.881527       -1.565859       -0.873854
