9
CH3NHCHO
C       -0.863599        0.418202        0.000003
O       -1.368284       -0.660913       -0.000001
H       -1.454736        1.335293        0.000005
N        0.457971        0.646238        0.000005
C        1.427101       -0.427610        0.000003
H        0.770044        1.584711        0.000009
H        1.313425       -1.050081        0.876825
H        1.312264       -1.050964       -0.876041
H        2.418466        0.001122       -0.000861
