9
CH3OCH3
C        0.000000        1.166341       -0.188285
O        0.000000        0.000000        0.567304
C        0.000000       -1.166341       -0.188285
H        0.000000        2.006911        0.498242
H       -0.880996        1.230204       -0.818874
H        0.880996        1.230204       -0.818874
H        0.000000       -2.006911        0.498242
H        0.880996       -1.230204       -0.818874
H       -0.880996       -1.230204       -0.818874
