6
H2CCNH
C       -0.041239        1.234755        0.000000
C       -0.041239       -0.063145        0.000000
N       -0.041239       -1.267545        0.000000
H        0.866028       -1.693774        0.000000
H       -0.041239        1.768462        0.927969
H       -0.041239        1.768462       -0.927969
