6
HNCHCN
C       -0.267699        0.727651        0.000000
C       -0.267699       -0.729149        0.000000
N        0.809816       -1.349235        0.000000
H        0.664202       -2.341104        0.000000
H       -1.246634       -1.182227        0.000000
N       -0.267699        1.853851        0.000000
