6
l-HC4N
H        0.000000        0.000000       -3.560438
C        0.000000        0.000000       -2.505038
C        0.000000        0.000000       -1.259838
C        0.000000        0.000000        0.040262
C        0.000000        0.000000        1.357763
N        0.000000        0.000000        2.537363
