10
R-CH3CHCH2O
C       -1.501307        0.105024       -0.143773
C       -0.143908       -0.046849        0.479609
C        1.040588        0.600950       -0.051020
O        0.810309       -0.767383       -0.250914
H       -0.147590       -0.286769        1.530257
H       -2.062840       -0.817063       -0.053267
H       -1.415423        0.350081       -1.195594
H       -2.058435        0.890136        0.353181
H        0.963766        1.211649       -0.933463
H        1.865811        0.836281        0.597305
